Circuit: * SPICE model for uA741 op amp

Fatal Error: No analysis request found.
